
[TITLE]
EPANET Example Network 1

[JUNCTIONS]
;ID	Elev	Demand	Pattern
10	710	1	BASE1;
11	710	1	BASE3;
12	700	1	BASE3;
13	695	1	BASE2;
21	700	1	BASE3;
22	695	1	BASE4;
23	690	1	BASE3;
31	700	1	BASE2;
32	710	1	BASE2;

[RESERVOIRS]
;ID	Head	Pattern
9	800;

[TANKS]
;ID	Elevation	InitLevel	MinLevel	MaxLevel	Diameter	MinVol	VolCurve
2	850	120	100	150	50.5	0;

[PIPES]
;ID	Node1	Node2	Length	Diameter	Roughness	MinorLoss	Status
10	10	11	10530	18	100	0	Open;
11	11	12	5280	14	100	0	Open;
12	12	13	5280	10	100	0	Open;
21	21	22	5280	10	100	0	Open;
22	22	23	5280	12	100	0	Open;
31	31	32	5280	6	100	0	Open;
110	2	12	200	18	100	0	Open;
111	11	21	5280	10	100	0	Open;
112	12	22	5280	12	100	0	Open;
113	13	23	5280	8	100	0	Open;
121	21	31	5280	8	100	0	Open;
122	22	32	5280	6	100	0	Open;

[PUMPS]
;ID	Node1	Node2	Parameters
9	9	10	HEAD 1;

[VALVES]

[DEMANDS]
 
[EMITTERS]

[STATUS]

[PATTERNS]
 1                     0.0000       0.0000       0.0000       0.0000       0.0000      64.0000
 1                    64.0000      64.0000      64.0000      64.0000      64.0000      64.0000
 1                    64.0000      64.0000      64.0000      64.0000      64.0000      64.0000
 1                    64.0000      64.0000      64.0000      64.0000      64.0000      64.0000
 1                    64.0000      64.0000      64.0000      64.0000      64.0000      64.0000
 1                    64.0000      64.0000      64.0000      64.0000      64.0000      64.0000
 1                    64.0000      64.0000      64.0000      64.0000      64.0000      64.0000
 1                    64.0000      64.0000      64.0000      64.0000      64.0000      64.0000
 2                   150.0000     150.0000     150.0000     150.0000     150.0000     252.0000
 2                   252.0000     252.0000     252.0000     252.0000     252.0000     252.0000
 2                   252.0000     252.0000     252.0000     252.0000     252.0000     252.0000
 2                   252.0000     252.0000     252.0000     252.0000     252.0000     252.0000
 2                   252.0000     252.0000     252.0000     252.0000     252.0000     252.0000
 2                   252.0000     252.0000     252.0000     252.0000     252.0000     252.0000
 2                   252.0000     252.0000     252.0000     252.0000     252.0000     252.0000
 2                   252.0000     252.0000     252.0000     252.0000     252.0000     252.0000
 3                   150.0000     150.0000     150.0000     150.0000     150.0000     250.0038
 3                   250.0038     250.0038     250.0038     250.0038     250.0038     250.0038
 3                   250.0038     250.0038     250.0038     250.0038     250.0038     250.0038
 3                   250.0038     250.0038     250.0038     250.0038     250.0038     250.0038
 3                   250.0038     250.0038     250.0038     250.0038     250.0038     250.0038
 3                   250.0038     250.0038     250.0038     250.0038     250.0038     250.0038
 3                   250.0038     250.0038     250.0038     250.0038     250.0038     250.0038
 3                   250.0038     250.0038     250.0038     250.0038     250.0038     250.0038
 4                   100.0000     100.0000     100.0000     100.0000     100.0000     200.0000
 4                   200.0000     200.0000     200.0000     200.0000     200.0000     200.0000
 4                   200.0000     200.0000     200.0000     200.0000     200.0000     200.0000
 4                   200.0000     200.0000     200.0000     200.0000     200.0000     200.0000
 4                   200.0000     200.0000     200.0000     200.0000     200.0000     200.0000
 4                   200.0000     200.0000     200.0000     200.0000     200.0000     200.0000
 4                   200.0000     200.0000     200.0000     200.0000     200.0000     200.0000
 4                   200.0000     200.0000     200.0000     200.0000     200.0000     200.0000
 5                   150.0000     150.0000     150.0000     150.0000     150.0000     150.0000
 5                   150.0000     150.0000     150.0000     150.0000     150.0000     150.0000
 5                   150.0000     150.0000     150.0000     150.0000     150.0000     150.0000
 5                   150.0000     150.0000     150.0000     150.0000     150.0000     150.0000
 5                   150.0000     150.0000     150.0000     150.0000     150.0000     150.0000
 5                   150.0000     150.0000     150.0000     150.0000     150.0000     150.0000
 5                   150.0000     150.0000     150.0000     150.0000     150.0000     150.0000
 5                   150.0000     150.0000     150.0000     150.0000     150.0000     150.0000
 6                   200.0000     200.0000     200.0000     200.0000     200.0000     200.0000
 6                   200.0000     200.0000     200.0000     200.0000     200.0000     200.0000
 6                   200.0000     200.0000     200.0000     200.0000     200.0000     200.0000
 6                   200.0000     200.0000     200.0000     200.0000     200.0000     200.0000
 6                   200.0000     200.0000     200.0000     200.0000     200.0000     200.0000
 6                   200.0000     200.0000     200.0000     200.0000     200.0000     200.0000
 6                   200.0000     200.0000     200.0000     200.0000     200.0000     200.0000
 6                   200.0000     200.0000     200.0000     200.0000     200.0000     200.0000
 7                   150.0000     150.0000     150.0000     150.0000     150.0000     150.0000
 7                   150.0000     150.0000     150.0000     150.0000     150.0000     150.0000
 7                   150.0000     150.0000     150.0000     150.0000     150.0000     150.0000
 7                   150.0000     150.0000     150.0000     150.0000     150.0000     150.0000
 7                   150.0000     150.0000     150.0000     150.0000     150.0000     150.0000
 7                   150.0000     150.0000     150.0000     150.0000     150.0000     150.0000
 7                   150.0000     150.0000     150.0000     150.0000     150.0000     150.0000
 7                   150.0000     150.0000     150.0000     150.0000     150.0000     150.0000
 8                   100.0000     100.0000     100.0000     100.0000     100.0000     100.5000
 8                   100.5000     100.5000     100.5000     100.5000     100.5000     100.5000
 8                   100.5000     100.5000     100.5000     100.5000     100.5000     100.5000
 8                   100.5000     100.5000     100.5000     100.5000     100.5000     100.5000
 8                   100.5000     100.5000     100.5000     100.5000     100.5000     100.5000
 8                   100.5000     100.5000     100.5000     100.5000     100.5000     100.5000
 8                   100.5000     100.5000     100.5000     100.5000     100.5000     100.5000
 8                   100.5000     100.5000     100.5000     100.5000     100.5000     100.5000
 9                   100.0000     100.0000     100.0000     100.0000     100.0000     604.0000
 9                   604.0000     604.0000     604.0000     604.0000     604.0000     604.0000
 9                   604.0000     604.0000     604.0000     604.0000     604.0000     604.0000
 9                   604.0000     604.0000     604.0000     604.0000     604.0000     604.0000
 9                   604.0000     604.0000     604.0000     604.0000     604.0000     604.0000
 9                   604.0000     604.0000     604.0000     604.0000     604.0000     604.0000
 9                   604.0000     604.0000     604.0000     604.0000     604.0000     604.0000
 9                   604.0000     604.0000     604.0000     604.0000     604.0000     604.0000
 ContPat               1.0000       1.0000       0.0000       0.0000       0.0000       0.0000
 ContPat               0.0000       0.0000       0.0000       0.0000       0.0000       0.0000
 ContPat               0.0000       0.0000       0.0000       0.0000       0.0000       0.0000
 ContPat               0.0000       0.0000       0.0000       0.0000       0.0000       0.0000
 ContPat               0.0000       0.0000       0.0000       0.0000       0.0000       0.0000
 ContPat               0.0000       0.0000       0.0000       0.0000       0.0000       0.0000
 ContPat               0.0000       0.0000       0.0000       0.0000       0.0000       0.0000
 ContPat               0.0000       0.0000       0.0000       0.0000       0.0000       0.0000
 BASE1                 0.0000       0.0000       0.0000       0.0000       0.0000       0.0000
 BASE1                 0.0000       0.0000       0.0000       0.0000       0.0000       0.0000
 BASE1                 0.0000       0.0000       0.0000       0.0000       0.0000       0.0000
 BASE1                 0.0000       0.0000       0.0000       0.0000       0.0000       0.0000
 BASE1                 0.0000       0.0000       0.0000       0.0000       0.0000       0.0000
 BASE1                 0.0000       0.0000       0.0000       0.0000       0.0000       0.0000
 BASE1                 0.0000       0.0000       0.0000       0.0000       0.0000       0.0000
 BASE1                 0.0000       0.0000       0.0000       0.0000       0.0000       0.0000
 BASE2               100.0000     105.0000     110.0000     115.0000     120.0000     125.0000
 BASE2               130.0000     135.0000     140.0000     145.0000     150.0000     155.0000
 BASE2               160.0000     155.0000     150.0000     145.0000     140.0000     135.0000
 BASE2               130.0000     125.0000     120.0000     115.0000     110.0000     105.0000
 BASE2               100.0000      95.0000      90.0000      85.0000      80.0000      75.0000
 BASE2                70.0000      65.0000      60.0000      55.0000      50.0000      45.0000
 BASE2                40.0000      45.0000      50.0000      55.0000      60.0000      65.0000
 BASE2                70.0000      75.0000      80.0000      85.0000      90.0000      95.0000
 BASE3               150.0000     157.5000     165.0000     172.5000     180.0000     187.5000
 BASE3               195.0000     202.5000     210.0000     217.5000     225.0000     232.5000
 BASE3               240.0000     232.5000     225.0000     217.5000     210.0000     202.5000
 BASE3               195.0000     187.5000     180.0000     172.5000     165.0000     157.5000
 BASE3               150.0000     142.5000     135.0000     127.5000     120.0000     112.5000
 BASE3               105.0000      97.5000      90.0000      82.5000      75.0000      67.5000
 BASE3                60.0000      67.5000      75.0000      82.5000      90.0000      97.5000
 BASE3               105.0000     112.5000     120.0000     127.5000     135.0000     142.5000
 BASE4               200.0000     210.0000     220.0000     230.0000     240.0000     250.0000
 BASE4               260.0000     270.0000     280.0000     290.0000     300.0000     310.0000
 BASE4               320.0000     310.0000     300.0000     290.0000     280.0000     270.0000
 BASE4               260.0000     250.0000     240.0000     230.0000     220.0000     210.0000
 BASE4               200.0000     190.0000     180.0000     170.0000     160.0000     150.0000
 BASE4               140.0000     130.0000     120.0000     110.0000     100.0000      90.0000
 BASE4                80.0000      90.0000     100.0000     110.0000     120.0000     130.0000
 BASE4               140.0000     150.0000     160.0000     170.0000     180.0000     190.0000

[CURVES]
 1                  1500.0000     250.0000

[CONTROLS]
 LINK 11 1.0000 AT CLOCKTIME 3:00:00
 LINK 12 1.0000 AT CLOCKTIME 3:00:00
 LINK 21 1.0000 AT CLOCKTIME 3:00:00
 LINK 22 1.0000 AT CLOCKTIME 3:00:00
 LINK 31 1.0000 AT CLOCKTIME 3:00:00
 LINK 111 1.0000 AT CLOCKTIME 3:00:00
 LINK 112 1.0000 AT CLOCKTIME 3:00:00
 LINK 113 1.0000 AT CLOCKTIME 3:00:00
 LINK 121 1.0000 AT CLOCKTIME 3:00:00
 LINK 122 1.0000 AT CLOCKTIME 3:00:00
 LINK 9 1.0000 IF NODE 2 BELOW 110.0000
 LINK 9 0.0000 IF NODE 2 ABOVE 140.0000

[QUALITY]

[SOURCES]

[MIXING]

[REACTIONS]
 ORDER  BULK            0.00
 ORDER  WALL            0
 ORDER  TANK            0.00
 GLOBAL BULK            0.0000
 GLOBAL WALL            0.0000

[ENERGY]
 GLOBAL EFFIC        75.00
 DEMAND CHARGE       0.0000

[TIMES]
 DURATION            192:00:00
 HYDRAULIC TIMESTEP  0:30:00
 QUALITY TIMESTEP    0:05:00
 REPORT TIMESTEP     1:00:00
 REPORT START        0:00:00
 PATTERN TIMESTEP    0:30:00
 PATTERN START       0:00:00
 RULE TIMESTEP       0:03:00
 START CLOCKTIME     0:00:00
 STATISTIC           NONE

[OPTIONS]
 UNITS               GPM
 PRESSURE            PSI
 HEADLOSS            H-W
 PATTERN             1
 UNBALANCED          CONTINUE 10
 QUALITY             Chemical mg/L
 DEMAND MULTIPLIER   1.00
 EMITTER EXPONENT    0.50
 VISCOSITY           1.0000
 DIFFUSIVITY         0.0000
 SPECIFIC GRAVITY    1.0000
 TRIALS              40
 ACCURACY            0.00100000
 TOLERANCE           0.01000000

[REPORT]
 PAGESIZE            0
 STATUS              NO
 SUMMARY             NO
 ENERGY              NO
 NODES               10 11 12 13 21 
 NODES               22 23 31 32 
 LINKS               NONE
  Demand              NO
  Head                NO
  Pressure            NO
 Quality             PRECISION 10
  Flow                NO
  Velocity            NO
  Headloss            NO
[TAGS]
[RULES]
[COORDINATES]
[VERTICES]
[LABELS]
[BACKDROP]


[END]